dss/import/capas-pablo/Formato-interfaz/completo-pvsystem/Line.dss
New Line.idlinea257_idtramos_288 bus1=434 bus2=435 length=77.905 units=m r1=0.00048417 r0=0.000629602 x1=0.000315326 x0=0.0017084 c1=0.0117887 c0=0.00367967 enabled=true phases=3
New Line.idlinea257_idtramos_289 bus1=435 bus2=436 length=68.284 units=m r1=0.00048417 r0=0.000629602 x1=0.000315326 x0=0.0017084 c1=0.0117887 c0=0.00367967 enabled=true phases=3
New Line.idlinea257_idtramos_290 bus1=436 bus2=437 length=110.112 units=m r1=0.00048417 r0=0.000629602 x1=0.000315326 x0=0.0017084 c1=0.0117887 c0=0.00367967 enabled=true phases=3
New Line.idlinea257_idtramos_291 bus1=437 bus2=438 length=72.73 units=m r1=0.00048417 r0=0.000629602 x1=0.000315326 x0=0.0017084 c1=0.0117887 c0=0.00367967 enabled=true phases=3
New Line.idlinea258_idtramos_292 bus1=439 bus2=440 length=43.334 units=m r1=0.00048417 r0=0.000629602 x1=0.000315326 x0=0.0017084 c1=0.0117887 c0=0.00367967 enabled=true phases=3
New Line.idlinea258_idtramos_293 bus1=440 bus2=441 length=159.404 units=m r1=0.00048417 r0=0.000629602 x1=0.000315326 x0=0.0017084 c1=0.0117887 c0=0.00367967 enabled=true phases=3
New Line.idlinea270_idtramos_327 bus1=481 bus2=482 length=39.162 units=m r1=0.000952086 r0=0.00109752 x1=0.00033682 x0=0.00172989 c1=0.0109851 c0=0.0035978200000000007 enabled=true phases=3
New Line.idlinea270_idtramos_328 bus1=482 bus2=483 length=80.654 units=m r1=0.000952086 r0=0.00109752 x1=0.00033682 x0=0.00172989 c1=0.0109851 c0=0.0035978200000000007 enabled=true phases=3
New Line.idlinea270_idtramos_329 bus1=483 bus2=484 length=49.419 units=m r1=0.000952086 r0=0.00109752 x1=0.00033682 x0=0.00172989 c1=0.0109851 c0=0.0035978200000000007 enabled=true phases=3
New Line.idlinea270_idtramos_330 bus1=484 bus2=485 length=38.994 units=m r1=0.000952086 r0=0.00109752 x1=0.00033682 x0=0.00172989 c1=0.0109851 c0=0.0035978200000000007 enabled=true phases=3
New Line.idlinea270_idtramos_331 bus1=485 bus2=486 length=57.203 units=m r1=0.000952086 r0=0.00109752 x1=0.00033682 x0=0.00172989 c1=0.0109851 c0=0.0035978200000000007 enabled=true phases=3
New Line.idlinea272_idtramos_344 bus1=busmt_500 bus2=501 length=13.054 units=m r1=0.00048417 r0=0.000629602 x1=0.000364866 x0=0.00160931 c1=0.0100937 c0=0.00410549 enabled=true phases=3
New Line.idlinea274_idtramos_346 bus1=504 bus2=505 length=26.243 units=m r1=0.00048417 r0=0.000629602 x1=0.000364866 x0=0.00160931 c1=0.0100937 c0=0.00410549 enabled=true phases=3
New Line.idlinea275_idtramos_347 bus1=506 bus2=507 length=42.582 units=m r1=0.00048417 r0=0.000629602 x1=0.000364866 x0=0.00160931 c1=0.0100937 c0=0.00410549 enabled=true phases=3
New Line.idlinea275_idtramos_348 bus1=507 bus2=508 length=342.278 units=m r1=0.00048417 r0=0.000629602 x1=0.000364866 x0=0.00160931 c1=0.0100937 c0=0.00410549 enabled=true phases=3
New Line.idlinea276_idtramos_349 bus1=509 bus2=510 length=919.061 units=m r1=0.00048417 r0=0.000629602 x1=0.000364866 x0=0.00160931 c1=0.0100937 c0=0.00410549 enabled=true phases=3
New Line.idlinea276_idtramos_350 bus1=510 bus2=511 length=1397.582 units=m r1=0.00048417 r0=0.000629602 x1=0.000364866 x0=0.00160931 c1=0.0100937 c0=0.00410549 enabled=true phases=3
New Line.idlinea276_idtramos_351 bus1=511 bus2=512 length=3999.65 units=m r1=0.00048417 r0=0.000629602 x1=0.000364866 x0=0.00160931 c1=0.0100937 c0=0.00410549 enabled=true phases=3
New Line.idlinea276_idtramos_352 bus1=512 bus2=513 length=1874.84 units=m r1=0.00048417 r0=0.000629602 x1=0.000364866 x0=0.00160931 c1=0.0100937 c0=0.00410549 enabled=true phases=3
New Line.idlinea276_idtramos_353 bus1=513 bus2=514 length=2021.815 units=m r1=0.00048417 r0=0.000629602 x1=0.000364866 x0=0.00160931 c1=0.0100937 c0=0.00410549 enabled=true phases=3
New Line.idlinea276_idtramos_354 bus1=514 bus2=515 length=943.551 units=m r1=0.00048417 r0=0.000629602 x1=0.000364866 x0=0.00160931 c1=0.0100937 c0=0.00410549 enabled=true phases=3
New Line.idlinea277_idtramos_355 bus1=516 bus2=517 length=550.231 units=m r1=0.00048417 r0=0.000629602 x1=0.000364866 x0=0.00160931 c1=0.0100937 c0=0.00410549 enabled=true phases=3
New Line.idlinea277_idtramos_356 bus1=517 bus2=518 length=3624.792 units=m r1=0.00048417 r0=0.000629602 x1=0.000364866 x0=0.00160931 c1=0.0100937 c0=0.00410549 enabled=true phases=3
New Line.idlinea277_idtramos_357 bus1=518 bus2=519 length=1599.538 units=m r1=0.00048417 r0=0.000629602 x1=0.000364866 x0=0.00160931 c1=0.0100937 c0=0.00410549 enabled=true phases=3
New Line.idlinea277_idtramos_358 bus1=519 bus2=520 length=867.143 units=m r1=0.00048417 r0=0.000629602 x1=0.000364866 x0=0.00160931 c1=0.0100937 c0=0.00410549 enabled=true phases=3
New Line.idlinea277_idtramos_359 bus1=520 bus2=521 length=402.906 units=m r1=0.00048417 r0=0.000629602 x1=0.000364866 x0=0.00160931 c1=0.0100937 c0=0.00410549 enabled=true phases=3
New Line.idlinea277_idtramos_360 bus1=521 bus2=522 length=1005.446 units=m r1=0.00048417 r0=0.000629602 x1=0.000364866 x0=0.00160931 c1=0.0100937 c0=0.00410549 enabled=true phases=3
New Line.idlinea277_idtramos_361 bus1=522 bus2=523 length=940.297 units=m r1=0.00048417 r0=0.000629602 x1=0.000364866 x0=0.00160931 c1=0.0100937 c0=0.00410549 enabled=true phases=3
New Line.idlinea277_idtramos_362 bus1=523 bus2=524 length=1323.427 units=m r1=0.00048417 r0=0.000629602 x1=0.000364866 x0=0.00160931 c1=0.0100937 c0=0.00410549 enabled=true phases=3
New Line.idlinea277_idtramos_363 bus1=524 bus2=525 length=1741.649 units=m r1=0.00048417 r0=0.000629602 x1=0.000364866 x0=0.00160931 c1=0.0100937 c0=0.00410549 enabled=true phases=3
New Line.idlinea277_idtramos_364 bus1=525 bus2=526 length=609.343 units=m r1=0.00048417 r0=0.000629602 x1=0.000364866 x0=0.00160931 c1=0.0100937 c0=0.00410549 enabled=true phases=3
New Line.idlinea277_idtramos_365 bus1=526 bus2=527 length=346.618 units=m r1=0.00048417 r0=0.000629602 x1=0.000364866 x0=0.00160931 c1=0.0100937 c0=0.00410549 enabled=true phases=3
New Line.idlinea277_idtramos_366 bus1=527 bus2=528 length=89.155 units=m r1=0.00048417 r0=0.000629602 x1=0.000364866 x0=0.00160931 c1=0.0100937 c0=0.00410549 enabled=true phases=3
New Line.idlinea278_idtramos_367 bus1=528 bus2=529 length=226.895 units=m r1=0.00048417 r0=0.000629602 x1=0.000364866 x0=0.00160931 c1=0.0100937 c0=0.00410549 enabled=true phases=3
New Line.idlinea278_idtramos_368 bus1=529 bus2=530 length=216.921 units=m r1=0.00048417 r0=0.000629602 x1=0.000364866 x0=0.00160931 c1=0.0100937 c0=0.00410549 enabled=true phases=3
New Line.idlinea278_idtramos_369 bus1=530 bus2=531 length=113.59 units=m r1=0.00048417 r0=0.000629602 x1=0.000364866 x0=0.00160931 c1=0.0100937 c0=0.00410549 enabled=true phases=3
New Line.idlinea278_idtramos_370 bus1=531 bus2=532 length=169.704 units=m r1=0.00048417 r0=0.000629602 x1=0.000364866 x0=0.00160931 c1=0.0100937 c0=0.00410549 enabled=true phases=3
New Line.idlinea278_idtramos_371 bus1=532 bus2=533 length=154.801 units=m r1=0.00048417 r0=0.000629602 x1=0.000364866 x0=0.00160931 c1=0.0100937 c0=0.00410549 enabled=true phases=3
New Line.idlinea270_idtramos_332 bus1=486 bus2=487 length=78.949 units=m r1=0.000952086 r0=0.00109752 x1=0.00033682 x0=0.00172989 c1=0.0109851 c0=0.0035978200000000007 enabled=true phases=3
New Line.idlinea278_idtramos_372 bus1=533 bus2=534 length=12.801 units=m r1=0.00048417 r0=0.000629602 x1=0.000364866 x0=0.00160931 c1=0.0100937 c0=0.00410549 enabled=true phases=3
New Line.idlinea278_idtramos_373 bus1=534 bus2=535 length=92.05 units=m r1=0.00048417 r0=0.000629602 x1=0.000364866 x0=0.00160931 c1=0.0100937 c0=0.00410549 enabled=true phases=3
New Line.idlinea278_idtramos_374 bus1=535 bus2=536 length=54.257 units=m r1=0.00048417 r0=0.000629602 x1=0.000364866 x0=0.00160931 c1=0.0100937 c0=0.00410549 enabled=true phases=3
New Line.idlinea278_idtramos_375 bus1=536 bus2=537 length=68.665 units=m r1=0.00048417 r0=0.000629602 x1=0.000364866 x0=0.00160931 c1=0.0100937 c0=0.00410549 enabled=true phases=3
New Line.idlinea279_idtramos_376 bus1=538 bus2=539 length=111.176 units=m r1=0.00048417 r0=0.000629602 x1=0.000364866 x0=0.00160931 c1=0.0100937 c0=0.00410549 enabled=true phases=3
New Line.idlinea268_idtramos_383 bus1=busmt_547 bus2=548 length=24.662 units=m r1=0.00048417 r0=0.000629602 x1=0.000315326 x0=0.0017084 c1=0.0117887 c0=0.00367967 enabled=true phases=3
New Line.idlinea297_idtramos_404 bus1=584 bus2=183 length=98.982 units=m r1=0.00048417 r0=0.000629602 x1=0.000315326 x0=0.0017084 c1=0.0117887 c0=0.00367967 enabled=true phases=3
New Line.idlinea299_idtramos_406 bus1=585 bus2=584 length=400.878 units=m r1=0.00048417 r0=0.000629602 x1=0.000315326 x0=0.0017084 c1=0.0117887 c0=0.00367967 enabled=true phases=3
New Line.idlinea300_idtramos_407 bus1=587 bus2=585 length=72.414 units=m r1=0.00048417 r0=0.000629602 x1=0.000315326 x0=0.0017084 c1=0.0117887 c0=0.00367967 enabled=true phases=3
New Line.idlinea301_idtramos_408 bus1=586 bus2=587 length=372.021 units=m r1=0.00048417 r0=0.000629602 x1=0.000315326 x0=0.0017084 c1=0.0117887 c0=0.00367967 enabled=true phases=3
New Line.idlinea305_idtramos_412 bus1=187 bus2=592 length=20.235 units=m r1=0.00048417 r0=0.000629602 x1=0.000315326 x0=0.0017084 c1=0.0117887 c0=0.00367967 enabled=true phases=3
New Line.idlinea306_idtramos_413 bus1=592 bus2=139 length=783.695 units=m r1=0.00048417 r0=0.000629602 x1=0.000315326 x0=0.0017084 c1=0.0117887 c0=0.00367967 enabled=true phases=3
New Line.idlinea307_idtramos_414 bus1=139 bus2=593 length=124.345 units=m r1=0.00048417 r0=0.000629602 x1=0.000315326 x0=0.0017084 c1=0.0117887 c0=0.00367967 enabled=true phases=3
New Line.idlinea308_idtramos_415 bus1=593 bus2=594 length=387.1 units=m r1=0.00048417 r0=0.000629602 x1=0.000315326 x0=0.0017084 c1=0.0117887 c0=0.00367967 enabled=true phases=3
New Line.idlinea309_idtramos_416 bus1=594 bus2=629 length=14.495 units=m r1=0.00048417 r0=0.000629602 x1=0.000315326 x0=0.0017084 c1=0.0117887 c0=0.00367967 enabled=true phases=3
New Line.idlinea310_idtramos_417 bus1=595 bus2=596 length=43.562 units=m r1=0.00048417 r0=0.000629602 x1=0.000315326 x0=0.0017084 c1=0.0117887 c0=0.00367967 enabled=true phases=3
New Line.idlinea311_idtramos_418 bus1=596 bus2=597 length=445.295 units=m r1=0.00048417 r0=0.000629602 x1=0.000315326 x0=0.0017084 c1=0.0117887 c0=0.00367967 enabled=true phases=3
New Line.idlinea312_idtramos_421 bus1=597 bus2=615 length=27.258 units=m r1=0.00048417 r0=0.000629602 x1=0.000315326 x0=0.0017084 c1=0.0117887 c0=0.00367967 enabled=true phases=3
New Line.idlinea313_idtramos_422 bus1=615 bus2=601 length=87.61 units=m r1=0.00048417 r0=0.000629602 x1=0.000315326 x0=0.0017084 c1=0.0117887 c0=0.00367967 enabled=true phases=3
New Line.idlinea314_idtramos_423 bus1=601 bus2=602 length=216.665 units=m r1=0.00048417 r0=0.000629602 x1=0.000315326 x0=0.0017084 c1=0.0117887 c0=0.00367967 enabled=true phases=3
New Line.idlinea315_idtramos_424 bus1=602 bus2=604 length=402.138 units=m r1=0.00048417 r0=0.000629602 x1=0.000315326 x0=0.0017084 c1=0.0117887 c0=0.00367967 enabled=true phases=3
New Line.idlinea316_idtramos_425 bus1=605 bus2=603 length=608.135 units=m r1=0.00048417 r0=0.000629602 x1=0.000315326 x0=0.0017084 c1=0.0117887 c0=0.00367967 enabled=true phases=3
New Line.idlinea317_idtramos_426 bus1=604 bus2=605 length=102.1 units=m r1=0.00048417 r0=0.000629602 x1=0.000315326 x0=0.0017084 c1=0.0117887 c0=0.00367967 enabled=true phases=3
New Line.idlinea318_idtramos_427 bus1=603 bus2=606 length=13.837 units=m r1=0.00048417 r0=0.000629602 x1=0.000315326 x0=0.0017084 c1=0.0117887 c0=0.00367967 enabled=true phases=3
New Line.idlinea319_idtramos_428 bus1=606 bus2=617 length=650.017 units=m r1=0.00048417 r0=0.000629602 x1=0.000315326 x0=0.0017084 c1=0.0117887 c0=0.00367967 enabled=true phases=3
New Line.idlinea328_idtramos_438 bus1=617 bus2=618 length=7.454 units=m r1=0.00048417 r0=0.000629602 x1=0.000315326 x0=0.0017084 c1=0.0117887 c0=0.00367967 enabled=true phases=3
New Line.idlinea329_idtramos_439 bus1=619 bus2=151 length=646.593 units=m r1=0.00048417 r0=0.000629602 x1=0.000315326 x0=0.0017084 c1=0.0117887 c0=0.00367967 enabled=true phases=3
New Line.idlinea337_idtramos_447 bus1=628 bus2=629 length=8.909 units=m r1=0.00048417 r0=0.000629602 x1=0.000315326 x0=0.0017084 c1=0.0117887 c0=0.00367967 enabled=true phases=3
New Line.idlinea338_idtramos_448 bus1=630 bus2=628 length=133.356 units=m r1=0.00048417 r0=0.000629602 x1=0.000315326 x0=0.0017084 c1=0.0117887 c0=0.00367967 enabled=true phases=3
New Line.idlinea339_idtramos_449 bus1=633 bus2=630 length=525.61 units=m r1=0.00048417 r0=0.000629602 x1=0.000315326 x0=0.0017084 c1=0.0117887 c0=0.00367967 enabled=true phases=3
New Line.idlinea340_idtramos_450 bus1=631 bus2=632 length=632.563 units=m r1=0.00048417 r0=0.000629602 x1=0.000315326 x0=0.0017084 c1=0.0117887 c0=0.00367967 enabled=true phases=3
New Line.idlinea340_idtramos_451 bus1=632 bus2=633 length=23.232 units=m r1=0.00048417 r0=0.000629602 x1=0.000315326 x0=0.0017084 c1=0.0117887 c0=0.00367967 enabled=true phases=3
New Line.idlinea342_idtramos_453 bus1=637 bus2=636 length=380.911 units=m r1=0.00048417 r0=0.000629602 x1=0.000315326 x0=0.0017084 c1=0.0117887 c0=0.00367967 enabled=true phases=3
New Line.idlinea343_idtramos_454 bus1=638 bus2=637 length=120.575 units=m r1=0.00048417 r0=0.000629602 x1=0.000315326 x0=0.0017084 c1=0.0117887 c0=0.00367967 enabled=true phases=3
New Line.idlinea344_idtramos_455 bus1=640 bus2=638 length=485.113 units=m r1=0.00048417 r0=0.000629602 x1=0.000315326 x0=0.0017084 c1=0.0117887 c0=0.00367967 enabled=true phases=3
New Line.idlinea345_idtramos_456 bus1=639 bus2=640 length=183.948 units=m r1=0.00048417 r0=0.000629602 x1=0.000315326 x0=0.0017084 c1=0.0117887 c0=0.00367967 enabled=true phases=3
New Line.idlinea352_idtramos_461 bus1=645 bus2=169 length=108.921 units=m r1=0.00048417 r0=0.000629602 x1=0.000315326 x0=0.0017084 c1=0.0117887 c0=0.00367967 enabled=true phases=3
New Line.idlinea353_idtramos_462 bus1=92 bus2=646 length=29.877 units=m r1=0.00048417 r0=0.000629602 x1=0.000315326 x0=0.0017084 c1=0.0117887 c0=0.00367967 enabled=true phases=3
New Line.idlinea355_idtramos_468 bus1=651 bus2=264 length=340.953 units=m r1=0.00048417 r0=0.000629602 x1=0.000315326 x0=0.0017084 c1=0.0117887 c0=0.00367967 enabled=true phases=3
New Line.idlinea356_idtramos_469 bus1=264 bus2=399 length=260.398 units=m r1=0.00048417 r0=0.000629602 x1=0.000315326 x0=0.0017084 c1=0.0117887 c0=0.00367967 enabled=true phases=3
New Line.idlinea358_idtramos_471 bus1=166 bus2=653 length=38.976 units=m r1=0.00048417 r0=0.000629602 x1=0.000315326 x0=0.0017084 c1=0.0117887 c0=0.00367967 enabled=true phases=3
New Line.idlinea359_idtramos_472 bus1=653 bus2=266 length=1284.496 units=m r1=0.00048417 r0=0.000629602 x1=0.000315326 x0=0.0017084 c1=0.0117887 c0=0.00367967 enabled=true phases=3
New Line.idlinea372_idtramos_485 bus1=266 bus2=665 length=388.875 units=m r1=0.00048417 r0=0.000629602 x1=0.000315326 x0=0.0017084 c1=0.0117887 c0=0.00367967 enabled=true phases=3
New Line.idlinea374_idtramos_488 bus1=665 bus2=668 length=964.583 units=m r1=0.00048417 r0=0.000629602 x1=0.000315326 x0=0.0017084 c1=0.0117887 c0=0.00367967 enabled=true phases=3
New Line.idlinea374_idtramos_489 bus1=668 bus2=80 length=25.963 units=m r1=0.00048417 r0=0.000629602 x1=0.000315326 x0=0.0017084 c1=0.0117887 c0=0.00367967 enabled=true phases=3
New Line.idlinea376_idtramos_491 bus1=80 bus2=670 length=99.767 units=m r1=0.00048417 r0=0.000629602 x1=0.000315326 x0=0.0017084 c1=0.0117887 c0=0.00367967 enabled=true phases=3
New Line.idlinea377_idtramos_492 bus1=670 bus2=671 length=347.251 units=m r1=0.00048417 r0=0.000629602 x1=0.000315326 x0=0.0017084 c1=0.0117887 c0=0.00367967 enabled=true phases=3
New Line.idlinea378_idtramos_493 bus1=671 bus2=672 length=227.487 units=m r1=0.00048417 r0=0.000629602 x1=0.000315326 x0=0.0017084 c1=0.0117887 c0=0.00367967 enabled=true phases=3
New Line.idlinea378_idtramos_494 bus1=672 bus2=673 length=63.503 units=m r1=0.00048417 r0=0.000629602 x1=0.000315326 x0=0.0017084 c1=0.0117887 c0=0.00367967 enabled=true phases=3
New Line.idlinea379_idtramos_495 bus1=673 bus2=400 length=703.675 units=m r1=0.00048417 r0=0.000629602 x1=0.000315326 x0=0.0017084 c1=0.0117887 c0=0.00367967 enabled=true phases=3
New Line.idlinea350_idtramos_508 bus1=683 bus2=684 length=551.008 units=m r1=0.00048417 r0=0.000629602 x1=0.000315326 x0=0.0017084 c1=0.0117887 c0=0.00367967 enabled=true phases=3
New Line.idlinea351_idtramos_509 bus1=684 bus2=645 length=598.828 units=m r1=0.00048417 r0=0.000629602 x1=0.000315326 x0=0.0017084 c1=0.0117887 c0=0.00367967 enabled=true phases=3
New Line.idlinea396_idtramos_519 bus1=694 bus2=695 length=627.32 units=m r1=0.00048417 r0=0.000629602 x1=0.000315326 x0=0.0017084 c1=0.0117887 c0=0.00367967 enabled=true phases=3
New Line.idlinea397_idtramos_520 bus1=695 bus2=692 length=21.536 units=m r1=0.00048417 r0=0.000629602 x1=0.000315326 x0=0.0017084 c1=0.0117887 c0=0.00367967 enabled=true phases=3
New Line.idlinea398_idtramos_521 bus1=696 bus2=697 length=407.834 units=m r1=0.000663124 r0=0.000808557 x1=0.000325502 x0=0.00171857 c1=0.011393900000000004 c0=0.0036404500000000004 enabled=true phases=3
New Line.idlinea399_idtramos_522 bus1=697 bus2=698 length=569.326 units=m r1=0.000663124 r0=0.000808557 x1=0.000325502 x0=0.00171857 c1=0.011393900000000004 c0=0.0036404500000000004 enabled=true phases=3
New Line.idlinea400_idtramos_523 bus1=699 bus2=698 length=316.864 units=m r1=0.00048417 r0=0.000629602 x1=0.000315326 x0=0.0017084 c1=0.0117887 c0=0.00367967 enabled=true phases=3
New Line.idlinea415_idtramos_536 bus1=713 bus2=714 length=62.378 units=m r1=0.00048417 r0=0.000629602 x1=0.000315326 x0=0.0017084 c1=0.0117887 c0=0.00367967 enabled=true phases=3
New Line.idlinea416_idtramos_537 bus1=712 bus2=713 length=207.182 units=m r1=0.00048417 r0=0.000629602 x1=0.000315326 x0=0.0017084 c1=0.0117887 c0=0.00367967 enabled=true phases=3
New Line.idlinea427_idtramos_549 bus1=725 bus2=726 length=488.86 units=m r1=0.000952086 r0=0.00109752 x1=0.00033682 x0=0.00172989 c1=0.0109851 c0=0.0035978200000000007 enabled=true phases=3
New Line.idlinea414_idtramos_552 bus1=714 bus2=699 length=32.316 units=m r1=0.00048417 r0=0.000629602 x1=0.000315326 x0=0.0017084 c1=0.0117887 c0=0.00367967 enabled=true phases=3
New Line.idlinea428_idtramos_553 bus1=263 bus2=726 length=787.541 units=m r1=0.000952086 r0=0.00109752 x1=0.00033682 x0=0.00172989 c1=0.0109851 c0=0.0035978200000000007 enabled=true phases=3
New Line.idlinea434_idtramos_562 bus1=110 bus2=112 length=32.514 units=m r1=0.00048417 r0=0.000629602 x1=0.000315326 x0=0.0017084 c1=0.0117887 c0=0.00367967 enabled=true phases=3
New Line.idlinea438_idtramos_566 bus1=408 bus2=736 length=71.173 units=m r1=0.00048417 r0=0.000629602 x1=0.000315326 x0=0.0017084 c1=0.0117887 c0=0.00367967 enabled=true phases=3
New Line.idlinea439_idtramos_567 bus1=736 bus2=737 length=26.235 units=m r1=0.00048417 r0=0.000629602 x1=0.000315326 x0=0.0017084 c1=0.0117887 c0=0.00367967 enabled=true phases=3
New Line.idlinea439_idtramos_568 bus1=737 bus2=409 length=31.703 units=m r1=0.00048417 r0=0.000629602 x1=0.000315326 x0=0.0017084 c1=0.0117887 c0=0.00367967 enabled=true phases=3
New Line.idlinea440_idtramos_569 bus1=413 bus2=738 length=373.124 units=m r1=0.00048417 r0=0.000629602 x1=0.000315326 x0=0.0017084 c1=0.0117887 c0=0.00367967 enabled=true phases=3
New Line.idlinea441_idtramos_570 bus1=738 bus2=739 length=910.666 units=m r1=0.00048417 r0=0.000629602 x1=0.000315326 x0=0.0017084 c1=0.0117887 c0=0.00367967 enabled=true phases=3
New Line.idlinea442_idtramos_571 bus1=739 bus2=740 length=968.193 units=m r1=0.00048417 r0=0.000629602 x1=0.000315326 x0=0.0017084 c1=0.0117887 c0=0.00367967 enabled=true phases=3
New Line.idlinea444_idtramos_572 bus1=418 bus2=741 length=108.161 units=m r1=0.00048417 r0=0.000629602 x1=0.000315326 x0=0.0017084 c1=0.0117887 c0=0.00367967 enabled=true phases=3
New Line.idlinea444_idtramos_573 bus1=741 bus2=742 length=116.65 units=m r1=0.00048417 r0=0.000629602 x1=0.000315326 x0=0.0017084 c1=0.0117887 c0=0.00367967 enabled=true phases=3
New Line.idlinea444_idtramos_574 bus1=742 bus2=743 length=190.985 units=m r1=0.00048417 r0=0.000629602 x1=0.000315326 x0=0.0017084 c1=0.0117887 c0=0.00367967 enabled=true phases=3
New Line.idlinea444_idtramos_575 bus1=743 bus2=744 length=235.849 units=m r1=0.00048417 r0=0.000629602 x1=0.000315326 x0=0.0017084 c1=0.0117887 c0=0.00367967 enabled=true phases=3
New Line.idlinea444_idtramos_576 bus1=744 bus2=745 length=179.184 units=m r1=0.00048417 r0=0.000629602 x1=0.000315326 x0=0.0017084 c1=0.0117887 c0=0.00367967 enabled=true phases=3
New Line.idlinea444_idtramos_577 bus1=745 bus2=746 length=230.166 units=m r1=0.00048417 r0=0.000629602 x1=0.000315326 x0=0.0017084 c1=0.0117887 c0=0.00367967 enabled=true phases=3
New Line.idlinea444_idtramos_578 bus1=746 bus2=747 length=229.614 units=m r1=0.00048417 r0=0.000629602 x1=0.000315326 x0=0.0017084 c1=0.0117887 c0=0.00367967 enabled=true phases=3
New Line.idlinea444_idtramos_579 bus1=747 bus2=748 length=241.214 units=m r1=0.00048417 r0=0.000629602 x1=0.000315326 x0=0.0017084 c1=0.0117887 c0=0.00367967 enabled=true phases=3
New Line.idlinea444_idtramos_580 bus1=748 bus2=749 length=156.716 units=m r1=0.00048417 r0=0.000629602 x1=0.000315326 x0=0.0017084 c1=0.0117887 c0=0.00367967 enabled=true phases=3
New Line.idlinea444_idtramos_581 bus1=749 bus2=750 length=397.156 units=m r1=0.00048417 r0=0.000629602 x1=0.000315326 x0=0.0017084 c1=0.0117887 c0=0.00367967 enabled=true phases=3
New Line.idlinea444_idtramos_582 bus1=750 bus2=751 length=54.382 units=m r1=0.00048417 r0=0.000629602 x1=0.000315326 x0=0.0017084 c1=0.0117887 c0=0.00367967 enabled=true phases=3
New Line.idlinea444_idtramos_583 bus1=751 bus2=752 length=48.103 units=m r1=0.00048417 r0=0.000629602 x1=0.000315326 x0=0.0017084 c1=0.0117887 c0=0.00367967 enabled=true phases=3
New Line.idlinea444_idtramos_584 bus1=752 bus2=753 length=89.207 units=m r1=0.00048417 r0=0.000629602 x1=0.000315326 x0=0.0017084 c1=0.0117887 c0=0.00367967 enabled=true phases=3
New Line.idlinea444_idtramos_585 bus1=753 bus2=754 length=336.067 units=m r1=0.00048417 r0=0.000629602 x1=0.000315326 x0=0.0017084 c1=0.0117887 c0=0.00367967 enabled=true phases=3
New Line.idlinea444_idtramos_586 bus1=754 bus2=755 length=350.174 units=m r1=0.00048417 r0=0.000629602 x1=0.000315326 x0=0.0017084 c1=0.0117887 c0=0.00367967 enabled=true phases=3
New Line.idlinea444_idtramos_587 bus1=755 bus2=756 length=52.266 units=m r1=0.00048417 r0=0.000629602 x1=0.000315326 x0=0.0017084 c1=0.0117887 c0=0.00367967 enabled=true phases=3
New Line.idlinea444_idtramos_588 bus1=756 bus2=757 length=56.518 units=m r1=0.00048417 r0=0.000629602 x1=0.000315326 x0=0.0017084 c1=0.0117887 c0=0.00367967 enabled=true phases=3
New Line.idlinea444_idtramos_589 bus1=757 bus2=758 length=59.772 units=m r1=0.00048417 r0=0.000629602 x1=0.000315326 x0=0.0017084 c1=0.0117887 c0=0.00367967 enabled=true phases=3
New Line.idlinea444_idtramos_590 bus1=758 bus2=759 length=122.439 units=m r1=0.00048417 r0=0.000629602 x1=0.000315326 x0=0.0017084 c1=0.0117887 c0=0.00367967 enabled=true phases=3
New Line.idlinea444_idtramos_591 bus1=759 bus2=760 length=304.73 units=m r1=0.00048417 r0=0.000629602 x1=0.000315326 x0=0.0017084 c1=0.0117887 c0=0.00367967 enabled=true phases=3
New Line.idlinea445_idtramos_592 bus1=760 bus2=761 length=198.254 units=m r1=0.00048417 r0=0.000629602 x1=0.000315326 x0=0.0017084 c1=0.0117887 c0=0.00367967 enabled=true phases=3
New Line.idlinea445_idtramos_593 bus1=761 bus2=762 length=88.896 units=m r1=0.00048417 r0=0.000629602 x1=0.000315326 x0=0.0017084 c1=0.0117887 c0=0.00367967 enabled=true phases=3
New Line.idlinea445_idtramos_594 bus1=762 bus2=763 length=108.318 units=m r1=0.00048417 r0=0.000629602 x1=0.000315326 x0=0.0017084 c1=0.0117887 c0=0.00367967 enabled=true phases=3
New Line.idlinea445_idtramos_595 bus1=763 bus2=764 length=200.625 units=m r1=0.00048417 r0=0.000629602 x1=0.000315326 x0=0.0017084 c1=0.0117887 c0=0.00367967 enabled=true phases=3
New Line.idlinea445_idtramos_596 bus1=764 bus2=765 length=130.014 units=m r1=0.00048417 r0=0.000629602 x1=0.000315326 x0=0.0017084 c1=0.0117887 c0=0.00367967 enabled=true phases=3
New Line.idlinea445_idtramos_597 bus1=765 bus2=766 length=33.638 units=m r1=0.00048417 r0=0.000629602 x1=0.000315326 x0=0.0017084 c1=0.0117887 c0=0.00367967 enabled=true phases=3
New Line.idlinea445_idtramos_598 bus1=766 bus2=767 length=110.65 units=m r1=0.00048417 r0=0.000629602 x1=0.000315326 x0=0.0017084 c1=0.0117887 c0=0.00367967 enabled=true phases=3
New Line.idlinea445_idtramos_599 bus1=767 bus2=768 length=105.628 units=m r1=0.00048417 r0=0.000629602 x1=0.000315326 x0=0.0017084 c1=0.0117887 c0=0.00367967 enabled=true phases=3
New Line.idlinea445_idtramos_600 bus1=768 bus2=769 length=286.579 units=m r1=0.00048417 r0=0.000629602 x1=0.000315326 x0=0.0017084 c1=0.0117887 c0=0.00367967 enabled=true phases=3
New Line.idlinea445_idtramos_601 bus1=769 bus2=770 length=227.102 units=m r1=0.00048417 r0=0.000629602 x1=0.000315326 x0=0.0017084 c1=0.0117887 c0=0.00367967 enabled=true phases=3
New Line.idlinea445_idtramos_602 bus1=770 bus2=771 length=435.049 units=m r1=0.00048417 r0=0.000629602 x1=0.000315326 x0=0.0017084 c1=0.0117887 c0=0.00367967 enabled=true phases=3
New Line.idlinea445_idtramos_603 bus1=771 bus2=772 length=76.898 units=m r1=0.00048417 r0=0.000629602 x1=0.000315326 x0=0.0017084 c1=0.0117887 c0=0.00367967 enabled=true phases=3
New Line.idlinea446_idtramos_604 bus1=772 bus2=773 length=621.314 units=m r1=0.00048417 r0=0.000629602 x1=0.000315326 x0=0.0017084 c1=0.0117887 c0=0.00367967 enabled=true phases=3
New Line.idlinea446_idtramos_605 bus1=773 bus2=774 length=459.651 units=m r1=0.00048417 r0=0.000629602 x1=0.000315326 x0=0.0017084 c1=0.0117887 c0=0.00367967 enabled=true phases=3
New Line.idlinea446_idtramos_606 bus1=774 bus2=775 length=1774.218 units=m r1=0.00048417 r0=0.000629602 x1=0.000315326 x0=0.0017084 c1=0.0117887 c0=0.00367967 enabled=true phases=3
New Line.idlinea446_idtramos_607 bus1=775 bus2=776 length=299.838 units=m r1=0.00048417 r0=0.000629602 x1=0.000315326 x0=0.0017084 c1=0.0117887 c0=0.00367967 enabled=true phases=3
New Line.idlinea447_idtramos_608 bus1=776 bus2=777 length=1084.897 units=m r1=0.00048417 r0=0.000629602 x1=0.000315326 x0=0.0017084 c1=0.0117887 c0=0.00367967 enabled=true phases=3
New Line.idlinea447_idtramos_609 bus1=777 bus2=778 length=48.587 units=m r1=0.00048417 r0=0.000629602 x1=0.000315326 x0=0.0017084 c1=0.0117887 c0=0.00367967 enabled=true phases=3
New Line.idlinea447_idtramos_610 bus1=778 bus2=779 length=44.037 units=m r1=0.00048417 r0=0.000629602 x1=0.000315326 x0=0.0017084 c1=0.0117887 c0=0.00367967 enabled=true phases=3
New Line.idlinea447_idtramos_611 bus1=779 bus2=780 length=105.517 units=m r1=0.00048417 r0=0.000629602 x1=0.000315326 x0=0.0017084 c1=0.0117887 c0=0.00367967 enabled=true phases=3
New Line.idlinea447_idtramos_612 bus1=780 bus2=781 length=114.106 units=m r1=0.00048417 r0=0.000629602 x1=0.000315326 x0=0.0017084 c1=0.0117887 c0=0.00367967 enabled=true phases=3
New Line.idlinea447_idtramos_613 bus1=781 bus2=782 length=75.219 units=m r1=0.00048417 r0=0.000629602 x1=0.000315326 x0=0.0017084 c1=0.0117887 c0=0.00367967 enabled=true phases=3
New Line.idlinea447_idtramos_614 bus1=782 bus2=783 length=60.841 units=m r1=0.00048417 r0=0.000629602 x1=0.000315326 x0=0.0017084 c1=0.0117887 c0=0.00367967 enabled=true phases=3
New Line.idlinea447_idtramos_615 bus1=783 bus2=419 length=77.921 units=m r1=0.00048417 r0=0.000629602 x1=0.000315326 x0=0.0017084 c1=0.0117887 c0=0.00367967 enabled=true phases=3
New Line.idlinea449_idtramos_616 bus1=784 bus2=785 length=25.082 units=m r1=0.00048417 r0=0.000629602 x1=0.000315326 x0=0.0017084 c1=0.0117887 c0=0.00367967 enabled=true phases=3
New Line.idlinea449_idtramos_617 bus1=785 bus2=786 length=3.977 units=m r1=0.00048417 r0=0.000629602 x1=0.000315326 x0=0.0017084 c1=0.0117887 c0=0.00367967 enabled=true phases=3
New Line.idlinea449_idtramos_618 bus1=786 bus2=787 length=10.674 units=m r1=0.00048417 r0=0.000629602 x1=0.000315326 x0=0.0017084 c1=0.0117887 c0=0.00367967 enabled=true phases=3
New Line.idlinea449_idtramos_619 bus1=787 bus2=788 length=14.004 units=m r1=0.00048417 r0=0.000629602 x1=0.000315326 x0=0.0017084 c1=0.0117887 c0=0.00367967 enabled=true phases=3
New Line.idlinea449_idtramos_620 bus1=788 bus2=791 length=6.278 units=m r1=0.00048417 r0=0.000629602 x1=0.000315326 x0=0.0017084 c1=0.0117887 c0=0.00367967 enabled=true phases=3
New Line.idlinea450_idtramos_621 bus1=791 bus2=789 length=3.187 units=m r1=0.00048417 r0=0.000629602 x1=0.000315326 x0=0.0017084 c1=0.0117887 c0=0.00367967 enabled=true phases=3
New Line.idlinea450_idtramos_622 bus1=789 bus2=500 length=3.176 units=m r1=0.00048417 r0=0.000629602 x1=0.000315326 x0=0.0017084 c1=0.0117887 c0=0.00367967 enabled=true phases=3
New Line.idlinea451_idtramos_623 bus1=790 bus2=791 length=65.467 units=m r1=0.00048417 r0=0.000629602 x1=0.000315326 x0=0.0017084 c1=0.0117887 c0=0.00367967 enabled=true phases=3
New Line.idlinea454_idtramos_670 bus1=840 bus2=838 length=376.926 units=m r1=0.00048417 r0=0.000629602 x1=0.000315326 x0=0.0017084 c1=0.0117887 c0=0.00367967 enabled=true phases=3
New Line.idlinea454_idtramos_671 bus1=838 bus2=839 length=70.086 units=m r1=0.00048417 r0=0.000629602 x1=0.000315326 x0=0.0017084 c1=0.0117887 c0=0.00367967 enabled=true phases=3
New Line.idlinea454_idtramos_672 bus1=839 bus2=442 length=19.316 units=m r1=0.00048417 r0=0.000629602 x1=0.000315326 x0=0.0017084 c1=0.0117887 c0=0.00367967 enabled=true phases=3
New Line.idlinea455_idtramos_673 bus1=463 bus2=840 length=386.681 units=m r1=0.00048417 r0=0.000629602 x1=0.000315326 x0=0.0017084 c1=0.0117887 c0=0.00367967 enabled=true phases=3
New Line.idlinea452_idtramos_677 bus1=442 bus2=790 length=33.671 units=m r1=0.00048417 r0=0.000629602 x1=0.000315326 x0=0.0017084 c1=0.0117887 c0=0.00367967 enabled=true phases=3
New Line.idlinea456_idtramos_678 bus1=500 bus2=439 length=40.417 units=m r1=0.00048417 r0=0.000629602 x1=0.000315326 x0=0.0017084 c1=0.0117887 c0=0.00367967 enabled=true phases=3
New Line.idlinea458_idtramos_679 bus1=548 bus2=843 length=180.845 units=m r1=0.00048417 r0=0.000629602 x1=0.000315326 x0=0.0017084 c1=0.0117887 c0=0.00367967 enabled=true phases=3
New Line.idlinea458_idtramos_680 bus1=843 bus2=844 length=82.706 units=m r1=0.00048417 r0=0.000629602 x1=0.000315326 x0=0.0017084 c1=0.0117887 c0=0.00367967 enabled=true phases=3
New Line.idlinea458_idtramos_681 bus1=844 bus2=845 length=80.755 units=m r1=0.00048417 r0=0.000629602 x1=0.000315326 x0=0.0017084 c1=0.0117887 c0=0.00367967 enabled=true phases=3
New Line.idlinea458_idtramos_682 bus1=845 bus2=846 length=42.21 units=m r1=0.00048417 r0=0.000629602 x1=0.000315326 x0=0.0017084 c1=0.0117887 c0=0.00367967 enabled=true phases=3
New Line.idlinea458_idtramos_683 bus1=846 bus2=847 length=70.959 units=m r1=0.00048417 r0=0.000629602 x1=0.000315326 x0=0.0017084 c1=0.0117887 c0=0.00367967 enabled=true phases=3
New Line.idlinea458_idtramos_688 bus1=851 bus2=852 length=349.043 units=m r1=0.00048417 r0=0.000629602 x1=0.000315326 x0=0.0017084 c1=0.0117887 c0=0.00367967 enabled=true phases=3
New Line.idlinea458_idtramos_689 bus1=852 bus2=853 length=686.554 units=m r1=0.00048417 r0=0.000629602 x1=0.000315326 x0=0.0017084 c1=0.0117887 c0=0.00367967 enabled=true phases=3
New Line.idlinea458_idtramos_690 bus1=853 bus2=854 length=63.795 units=m r1=0.00048417 r0=0.000629602 x1=0.000315326 x0=0.0017084 c1=0.0117887 c0=0.00367967 enabled=true phases=3
New Line.idlinea458_idtramos_691 bus1=854 bus2=855 length=158.252 units=m r1=0.00048417 r0=0.000629602 x1=0.000315326 x0=0.0017084 c1=0.0117887 c0=0.00367967 enabled=true phases=3
New Line.idlinea458_idtramos_692 bus1=855 bus2=856 length=118.962 units=m r1=0.00048417 r0=0.000629602 x1=0.000315326 x0=0.0017084 c1=0.0117887 c0=0.00367967 enabled=true phases=3
New Line.idlinea458_idtramos_697 bus1=860 bus2=861 length=87.201 units=m r1=0.00048417 r0=0.000629602 x1=0.000315326 x0=0.0017084 c1=0.0117887 c0=0.00367967 enabled=true phases=3
New Line.idlinea458_idtramos_698 bus1=861 bus2=862 length=180.088 units=m r1=0.00048417 r0=0.000629602 x1=0.000315326 x0=0.0017084 c1=0.0117887 c0=0.00367967 enabled=true phases=3
New Line.idlinea458_idtramos_699 bus1=862 bus2=863 length=332.505 units=m r1=0.00048417 r0=0.000629602 x1=0.000315326 x0=0.0017084 c1=0.0117887 c0=0.00367967 enabled=true phases=3
New Line.idlinea458_idtramos_701 bus1=864 bus2=865 length=632.716 units=m r1=0.00048417 r0=0.000629602 x1=0.000315326 x0=0.0017084 c1=0.0117887 c0=0.00367967 enabled=true phases=3
New Line.idlinea458_idtramos_702 bus1=865 bus2=866 length=253.903 units=m r1=0.00048417 r0=0.000629602 x1=0.000315326 x0=0.0017084 c1=0.0117887 c0=0.00367967 enabled=true phases=3
New Line.idlinea458_idtramos_703 bus1=866 bus2=867 length=667.451 units=m r1=0.00048417 r0=0.000629602 x1=0.000315326 x0=0.0017084 c1=0.0117887 c0=0.00367967 enabled=true phases=3
New Line.idlinea458_idtramos_704 bus1=867 bus2=480 length=20.379 units=m r1=0.00048417 r0=0.000629602 x1=0.000315326 x0=0.0017084 c1=0.0117887 c0=0.00367967 enabled=true phases=3
New Line.idlinea459_idtramos_705 bus1=488 bus2=868 length=61.81 units=m r1=0.000952086 r0=0.00109752 x1=0.00033682 x0=0.00172989 c1=0.0109851 c0=0.0035978200000000007 enabled=true phases=3
New Line.idlinea459_idtramos_706 bus1=868 bus2=869 length=86.325 units=m r1=0.000952086 r0=0.00109752 x1=0.00033682 x0=0.00172989 c1=0.0109851 c0=0.0035978200000000007 enabled=true phases=3
New Line.idlinea459_idtramos_707 bus1=869 bus2=870 length=41.886 units=m r1=0.000952086 r0=0.00109752 x1=0.00033682 x0=0.00172989 c1=0.0109851 c0=0.0035978200000000007 enabled=true phases=3
New Line.idlinea459_idtramos_708 bus1=870 bus2=871 length=156.929 units=m r1=0.000952086 r0=0.00109752 x1=0.00033682 x0=0.00172989 c1=0.0109851 c0=0.0035978200000000007 enabled=true phases=3
New Line.idlinea460_idtramos_710 bus1=872 bus2=873 length=9.549 units=m r1=0.000952086 r0=0.00109752 x1=0.00033682 x0=0.00172989 c1=0.0109851 c0=0.0035978200000000007 enabled=true phases=3
New Line.idlinea458_idtramos_684 bus1=847 bus2=848 length=156.955 units=m r1=0.00048417 r0=0.000629602 x1=0.000315326 x0=0.0017084 c1=0.0117887 c0=0.00367967 enabled=true phases=3
New Line.idlinea460_idtramos_711 bus1=873 bus2=874 length=38.737 units=m r1=0.000952086 r0=0.00109752 x1=0.00033682 x0=0.00172989 c1=0.0109851 c0=0.0035978200000000007 enabled=true phases=3
New Line.idlinea460_idtramos_712 bus1=874 bus2=875 length=67.975 units=m r1=0.000952086 r0=0.00109752 x1=0.00033682 x0=0.00172989 c1=0.0109851 c0=0.0035978200000000007 enabled=true phases=3
New Line.idlinea851_idtramos_1250 bus1=501 bus2=1338 length=93.432 units=m r1=0.00048417 r0=0.000629602 x1=0.000364866 x0=0.00160931 c1=0.0100937 c0=0.00410549 enabled=true phases=3
New Line.idlinea852_idtramos_1251 bus1=1338 bus2=1339 length=79.844 units=m r1=0.00048417 r0=0.000629602 x1=0.000364866 x0=0.00160931 c1=0.0100937 c0=0.00410549 enabled=true phases=3
New Line.idlinea853_idtramos_1252 bus1=1339 bus2=1340 length=102.23 units=m r1=0.00048417 r0=0.000629602 x1=0.000364866 x0=0.00160931 c1=0.0100937 c0=0.00410549 enabled=true phases=3
New Line.idlinea853_idtramos_1253 bus1=1340 bus2=1341 length=77.696 units=m r1=0.00048417 r0=0.000629602 x1=0.000364866 x0=0.00160931 c1=0.0100937 c0=0.00410549 enabled=true phases=3
New Line.idlinea853_idtramos_1254 bus1=1341 bus2=1342 length=64.592 units=m r1=0.00048417 r0=0.000629602 x1=0.000364866 x0=0.00160931 c1=0.0100937 c0=0.00410549 enabled=true phases=3
New Line.idlinea853_idtramos_1255 bus1=1342 bus2=551 length=158.623 units=m r1=0.00048417 r0=0.000629602 x1=0.000364866 x0=0.00160931 c1=0.0100937 c0=0.00410549 enabled=true phases=3
New Line.idlinea854_idtramos_1256 bus1=551 bus2=1343 length=73.474 units=m r1=0.00048417 r0=0.000629602 x1=0.000364866 x0=0.00160931 c1=0.0100937 c0=0.00410549 enabled=true phases=3
New Line.idlinea854_idtramos_1257 bus1=1343 bus2=1344 length=244.896 units=m r1=0.00048417 r0=0.000629602 x1=0.000364866 x0=0.00160931 c1=0.0100937 c0=0.00410549 enabled=true phases=3
New Line.idlinea854_idtramos_1258 bus1=1344 bus2=1345 length=150.121 units=m r1=0.00048417 r0=0.000629602 x1=0.000364866 x0=0.00160931 c1=0.0100937 c0=0.00410549 enabled=true phases=3
...
